Circuit: * C:\Users\Arian\Desktop\electronicsll_400101204\Transmitter.asc

Warning: Multiple definitions of model "2scr375p" Type: BJT
Warning: Multiple definitions of model "bc857b" Type: BJT
Warning: Multiple definitions of model "bc847c" Type: BJT
Warning: Multiple definitions of model "bc847b" Type: BJT
WARNING: Less than two connections to node N009.  This node is used by Q25.
WARNING: Less than two connections to node N011.  This node is used by Q27.
Direct Newton iteration for .op point succeeded.

Date: Sun Jul 02 22:46:46 2023
Total elapsed time: 8.085 seconds.

tnom = 27
temp = 27
method = modified trap
totiter = 315711
traniter = 315661
tranpoints = 96693
accept = 65406
rejected = 31287
matrix size = 44
fillins = 23
solver = Normal
Thread vector: 49.2/19.4[4] 18.3/5.8[4] 40.0/6.3[4] 0.7/3.0[1]  2592/500
Matrix Compiler1: 4.45 KB object code size  2.3/1.4/[0.7]
Matrix Compiler2: 5.46 KB object code size  1.5/4.6/[1.0]

